[TITLE]


[JUNCTIONS]
;ID              	Elev        	Demand      	Pattern         
 3               	1           	1800        	                	;

[RESERVOIRS]
;ID              	Head        	Pattern         
 1               	0           	                	;

[TANKS]
;ID              	Elevation   	InitLevel   	MinLevel    	MaxLevel    	Diameter    	MinVol      	VolCurve        	Overflow
 2               	10          	3           	0           	8           	70          	0           	*               	Yes	;

[PIPES]
;ID              	Node1           	Node2           	Length      	Diameter    	Roughness   	MinorLoss   	Status
 1               	2               	3               	1000        	500         	100         	0           	Open  	;

[PUMPS]
;ID              	Node1           	Node2           	Parameters
 2               	1               	2               	HEAD 1	SPEED 1	;

[VALVES]
;ID              	Node1           	Node2           	Diameter    	Type	Setting     	MinorLoss   

[TAGS]

[DEMANDS]
;Junction        	Demand      	Pattern         	Category

[STATUS]
;ID              	Status/Setting

[PATTERNS]
;ID              	Multipliers
;
 1               	1           	3           	2           	3           

[CURVES]
;ID              	X-Value     	Y-Value
;PUMP: 
 1               	3300        	90          

[CONTROLS]

[RULES]

[ENERGY]
 Global Efficiency  	75
 Global Price       	1
 Demand Charge      	0

[EMITTERS]
;Junction        	Coefficient

[QUALITY]
;Node            	InitQual

[SOURCES]
;Node            	Type        	Quality     	Pattern

[REACTIONS]
;Type     	Pipe/Tank       	Coefficient


[REACTIONS]
 Order Bulk            	1
 Order Tank            	1
 Order Wall            	1
 Global Bulk           	0
 Global Wall           	0
 Limiting Potential    	0
 Roughness Correlation 	0

[MIXING]
;Tank            	Model

[TIMES]
 Duration           	1
 Hydraulic Timestep 	1:00
 Quality Timestep   	0:05
 Pattern Timestep   	6
 Pattern Start      	0:00
 Report Timestep    	1:00
 Report Start       	00:00
 Start ClockTime    	0 am
 Statistic          	None

[REPORT]
 Status             	No
 Summary            	No
 Page               	0

[OPTIONS]
 Units              	LPM
 Headloss           	H-W
 Specific Gravity   	1
 Viscosity          	1
 Trials             	40
 Accuracy           	0.001
 CHECKFREQ          	2
 MAXCHECK           	10
 DAMPLIMIT          	0
 Unbalanced         	Continue 10
 Pattern            	1
 Demand Multiplier  	1.0
 Emitter Exponent   	0.5
 Quality            	None mg/L
 Diffusivity        	1
 Tolerance          	0.01

[COORDINATES]
;Node            	X-Coord           	Y-Coord
3               	2229.654          	2700.000          
1               	-133.779          	2700.000          
2               	1003.344          	2700.000          

[VERTICES]
;Link            	X-Coord           	Y-Coord

[LABELS]
;X-Coord             Y-Coord             Label & Anchor Node

[BACKDROP]
  DIMENSIONS  	0.000             	0.000             	10000.000         	10000.000         
 UNITS          	None
 FILE           	
 OFFSET         	0.00            	0.00            

[END]
